output/compact_ny_2025/partial_spc/impedance_125/S1_2025_SUMMER_PEAK_PUBLIC/replay_audit_branch.csv
branch_row,device_key,from_bus,to_bus,online,rate_a_mva,from_mva,to_mva,from_overload_mva,to_overload_mva,angle_deg,angle_min_deg,angle_max_deg,angle_below_min_deg,angle_above_max_deg,violated,invalid_limit_bounds,stored_terminal_flow_error_mva,stored_terminal_flow_inconsistent
1,NPCC_S7:BRANCH_ROW:33,37,38,1,2500,63.0255659171702,53.9315777822217,0,0,-0.403023739299394,-360,360,0,0,0,0,7.1607233460989e-15,0
2,NPCC_S7:BRANCH_ROW:34,37,39,1,3388,1131.2431146973,1122.6700881035,0,0,4.00668525902011,-360,360,0,0,0,0,3.13116440354502e-12,0
3,NPCC_S7:BRANCH_ROW:35,37,40,1,2500,160.009059952436,160.289649717732,0,0,-2.3595330509626,-360,360,0,0,0,0,5.72857867687912e-14,0
4,NPCC_S7:BRANCH_ROW:36,37,43,0,3745.98196383403,0,0,0,0,-5.53578150378253,-360,360,0,0,0,0,0,0
5,NPCC_S7:BRANCH_ROW:37,38,69,1,1216,184.601138334382,192.843935907288,0,0,-4.25225854446521,-360,360,0,0,0,0,2.8421709430404e-14,0
6,NPCC_S7:BRANCH_ROW:38,39,73,1,2500,744.725687908162,737.785452234458,0,0,6.6467207306151,-360,360,0,0,0,0,2.36704597915579e-12,0
7,NPCC_S7:BRANCH_ROW:39,39,73,1,2500,744.725687908162,737.785452234458,0,0,6.6467207306151,-360,360,0,0,0,0,2.36704597915579e-12,0
8,NPCC_S7:BRANCH_ROW:40,40,44,0,1328.76341358641,0,0,0,0,-1.6942650780618,-360,360,0,0,0,0,0,0
9,NPCC_S7:BRANCH_ROW:41,41,42,1,2500,552.565822619856,557.882752051585,0,0,-2.41036710891075,-360,360,0,0,0,0,1.13742335326934e-13,0
10,NPCC_S7:BRANCH_ROW:42,41,45,1,314.254622579561,17.3002328793869,15.0845276976666,0,0,1.69221369232841,-360,360,0,0,0,0,1.98602732259782e-15,0
11,NPCC_S7:BRANCH_ROW:43,43,44,1,2500,291.394456014095,289.38977855608,0,0,1.48198337475813,-360,360,0,0,0,0,5.85928550210846e-14,0
12,NPCC_S7:BRANCH_ROW:44,43,50,1,3463.47124449306,161.242027888725,161.541462470054,0,0,-2.03669504947886,-360,360,0,0,0,0,1.42286071952219e-13,0
13,NPCC_S7:BRANCH_ROW:45,43,50,1,3463.47124449306,161.242027888725,161.541462470054,0,0,-2.03669504947886,-360,360,0,0,0,0,1.42286071952219e-13,0
14,NPCC_S7:BRANCH_ROW:46,44,45,1,2500,271.702956675205,266.697820323974,0,0,2.50094797426935,-360,360,0,0,0,0,2.8421709430404e-14,0
15,NPCC_S7:BRANCH_ROW:47,44,48,0,6896.14528055676,0,0,0,0,-33.3323375752537,-360,360,0,0,0,0,0,0
16,NPCC_S7:BRANCH_ROW:48,45,46,1,2040.85471944324,138.283664200849,142.007597530391,0,0,-27.5340762736602,-360,360,0,0,0,0,5.72857867687912e-14,0
17,NPCC_S7:BRANCH_ROW:49,45,51,1,489.56239109923,44.5846574012781,46.7583353563868,0,0,-4.48351391614123,-360,360,0,0,0,0,7.32410687763558e-15,0
18,NPCC_S7:BRANCH_ROW:50,45,71,1,166.495119914644,21.454488246286,24.5573766844929,0,0,-6.46538003682333,-360,360,0,0,0,0,3.5527136788005e-15,0
19,NPCC_S7:BRANCH_ROW:51,46,47,1,2500,155.119344373383,164.150223040701,0,0,-10.4937224697333,-360,360,0,0,0,0,9.69702118706279e-14,0
20,NPCC_S7:BRANCH_ROW:52,46,49,1,2500,10.2240328325122,4.83173298272397,0,0,1.65727903424661,-360,360,0,0,0,0,2.37369733023001e-14,0
21,NPCC_S7:BRANCH_ROW:53,47,48,1,2500,140.430149444672,140.430165568811,0,0,2.19451319387042,-360,360,0,0,0,0,1.15463194561016e-14,0
22,NPCC_S7:BRANCH_ROW:54,50,51,1,2500,192.772660408989,189.000523516908,0,0,1.53611248236511,-360,360,0,0,0,0,3.17764371615651e-14,0
23,NPCC_S7:BRANCH_ROW:55,50,52,1,2858.06690137886,403.956964493128,399.392640277319,0,0,4.16493572666228,-360,360,0,0,0,0,5.6843418860808e-14,0
24,NPCC_S7:BRANCH_ROW:56,51,53,1,290.964700741948,74.9393200161007,66.1705222426313,0,0,8.08039664619536,-360,360,0,0,0,0,3.5527136788005e-15,0
25,NPCC_S7:BRANCH_ROW:57,51,72,1,2500,159.144862279356,164.435702642046,0,0,-1.87556593160085,-360,360,0,0,0,0,2.8421709430404e-14,0
26,NPCC_S7:BRANCH_ROW:58,52,53,1,2500,296.101361235579,290.550612075149,0,0,5.45157340189819,-360,360,0,0,0,0,5.72857867687912e-14,0
27,NPCC_S7:BRANCH_ROW:59,53,55,1,997.983883346124,48.0462010063838,48.8600279343863,0,0,-2.39993747760436,-360,360,0,0,0,0,7.105427357601e-15,0
28,NPCC_S7:BRANCH_ROW:60,53,65,1,785.968397879188,7.86014213039606,11.5721010136362,0,0,0.167203754977064,-360,360,0,0,0,0,1.97340073635252e-13,0
29,NPCC_S7:BRANCH_ROW:61,54,56,1,789.941803,28.2210776219066,29.4114455335273,0,0,-0.126676896444359,-360,360,0,0,0,0,3.5566146649216e-15,0
30,NPCC_S7:BRANCH_ROW:62,54,62,1,789.941803,35.4254528648245,35.8016727440635,0,0,1.15093587149923,-360,360,0,0,0,0,3.9196351164008e-13,0
31,NPCC_S7:BRANCH_ROW:65,55,57,1,789.941803,44.3481044423061,44.0975245911069,0,0,0.870460621828236,-360,360,0,0,0,0,5.00719199953295e-14,0
32,NPCC_S7:BRANCH_ROW:66,55,59,1,789.941803,19.607757828283,19.8784383728585,0,0,0.768397911130368,-360,360,0,0,0,0,3.58036167304945e-15,0
33,NPCC_S7:BRANCH_ROW:67,56,58,1,2500,227.229056146943,227.239203218287,0,0,1.59632091125385,-360,360,0,0,0,0,2.86428933843956e-13,0
34,NPCC_S7:BRANCH_ROW:68,57,59,1,2500,3.16285559373571,6.15485359081345,0,0,-0.102062710697868,-360,360,0,0,0,0,2.4046518324427e-14,0
35,NPCC_S7:BRANCH_ROW:69,58,60,1,2500,44.0998584534485,29.2858258777745,0,0,-0.455602553456948,-360,360,0,0,0,0,9.61860732977078e-14,0
36,NPCC_S7:BRANCH_ROW:70,58,62,1,2500,40.3452457928881,39.36977344693,0,0,-0.318708143310267,-360,360,0,0,0,0,1.57900538308881e-12,0
37,NPCC_S7:BRANCH_ROW:71,59,61,1,2500,15.140337466269,16.6376097377447,0,0,-1.16505267632608,-360,360,0,0,0,0,4.99994951219706e-14,0
38,NPCC_S7:BRANCH_ROW:73,62,63,1,620,3.71221564827408,16.1384611654928,0,0,-0.168248015317268,-360,360,0,0,0,0,3.89794038967767e-13,0
39,NPCC_S7:BRANCH_ROW:74,63,64,1,2500,80.0146807348495,79.351175904142,0,0,1.73374384301039,-360,360,0,0,0,0,1.46482137552712e-14,0
40,NPCC_S7:BRANCH_ROW:75,63,67,1,2500,80.2908808464742,81.2566793101193,0,0,-3.62115427642109,-360,360,0,0,0,0,1.4210854715202e-14,0
41,NPCC_S7:BRANCH_ROW:76,64,65,1,2500,41.8044498656208,40.7685163532007,0,0,1.7181475621536,-360,360,0,0,0,0,1.94657021092179e-13,0
42,NPCC_S7:BRANCH_ROW:77,64,68,1,2500,50.6117943204475,56.2200989336762,0,0,-6.5952701756668,-360,360,0,0,0,0,7.105427357601e-15,0
43,NPCC_S7:BRANCH_ROW:78,66,67,1,2500,31.5679560158068,31.4203917591944,0,0,-0.220511372756859,-360,360,0,0,0,0,3.5527136788005e-15,0
44,NPCC_S7:BRANCH_ROW:79,66,69,1,2500,24.4852751937056,8.31873065028895,0,0,-0.0139843052125193,-360,360,0,0,0,0,4.90718576884319e-14,0
45,NPCC_S7:BRANCH_ROW:81,67,68,1,2500,58.3019434303147,57.6946752298981,0,0,-1.24037205623532,-360,360,0,0,0,0,7.105427357601e-15,0
46,NPCC_S7:BRANCH_ROW:82,67,70,1,2500,58.26623185722,61.4183876033842,0,0,-1.7723092825495,-360,360,0,0,0,0,7.105427357601e-15,0
47,NPCC_S7:BRANCH_ROW:84,68,71,1,2500,14.5610807365964,18.9467692451553,0,0,-1.91604878403413,-360,360,0,0,0,0,1.77635683940025e-15,0
48,NPCC_S7:BRANCH_ROW:85,69,71,1,2500,196.942817043653,193.282947180608,0,0,-3.36294790781379,-360,360,0,0,0,0,5.6843418860808e-14,0
49,NPCC_S7:BRANCH_ROW:86,70,71,1,2500,61.4183876033839,60.9174006629239,0,0,-1.38411155771995,-360,360,0,0,0,0,2.8421709430404e-14,0
50,NPCC_S7:BRANCH_ROW:87,71,72,1,2500,24.3009491752933,14.3452506100619,0,0,0.106300189081248,-360,360,0,0,0,0,3.8395615110023e-13,0
51,NPCC_S7:BRANCH_ROW:88,73,74,0,1599.84337349398,0,0,0,0,4.79580370974135,-360,360,0,0,0,0,0,0
52,NPCC_S7:BRANCH_ROW:89,73,74,0,1599.84337349398,0,0,0,0,4.79580370974135,-360,360,0,0,0,0,0,0
53,NPCC_S7:BRANCH_ROW:90,74,77,1,2500,27.6755908447956,29.0165620357595,0,0,0.0577954159662859,-360,360,0,0,0,0,3.06586454973738e-12,0
54,NPCC_S7:BRANCH_ROW:91,74,78,1,2889.50495049505,604.441072468838,601.00251411993,0,0,1.3393780261792,-360,360,0,0,0,0,1.59125089872438e-12,0
55,NPCC_S7:BRANCH_ROW:92,74,78,1,2889.50495049505,604.441072468838,601.00251411993,0,0,1.3393780261792,-360,360,0,0,0,0,1.59125089872438e-12,0
56,NPCC_S7:BRANCH_ROW:94,76,77,0,4611.31325301205,0,0,0,0,0.211652876671728,-360,360,0,0,0,0,0,0
57,NPCC_S7:BRANCH_ROW:95,78,79,0,908.848753535103,0,0,0,0,1.74059672911634,-360,360,0,0,0,0,0,0
58,NPCC_S7:BRANCH_ROW:96,78,80,1,984.654731457801,56.9625231273472,48.3986905721273,0,0,1.30420682230454,-360,360,0,0,0,0,3.5527136788005e-15,0
59,NPCC_S7:BRANCH_ROW:97,78,81,0,503.818330764024,0,0,0,0,-0.578918124388675,-360,360,0,0,0,0,0,0
60,NPCC_S7:BRANCH_ROW:98,78,82,1,451.473569126203,162.356764235456,162.163458426206,0,0,2.4583616507105,-360,360,0,0,0,0,1.06581410364015e-14,0
61,NPCC_S7:BRANCH_ROW:219,40,41,1,2500,136.072815237234,134.649856930775,0,0,-0.885530796120863,-360,360,0,0,0,0,5.85928550210846e-14,0
62,NPCC_S7:BRANCH_ROW:220,49,48,0,2500,0,0,0,0,-9.95648831010946,-360,360,0,0,0,0,0,0
63,NPCC_S7:BRANCH_ROW:222,54,52,1,4583.01611665388,105.714161410399,105.779739818052,0,0,-1.1841978955293,-360,360,0,0,0,0,5.69543329542959e-14,0
64,NPCC_S7:BRANCH_ROW:223,54,55,1,2500,305.097399401359,303.024577651905,0,0,1.86743802876453,-360,360,0,0,0,0,1.4210854715202e-14,0
65,NPCC_S7:BRANCH_ROW:224,56,57,1,2500,42.959470425603,42.5086097435418,0,0,2.86457554703712,-360,360,0,0,0,0,7.94410929039127e-15,0
66,NPCC_S7:BRANCH_ROW:225,58,59,1,2500,265.868495392148,264.534030668522,0,0,1.1661919250854,-360,360,0,0,0,0,1.71121351098581e-13,0
67,NPCC_S7:BRANCH_ROW:226,60,61,1,2500,18.5451225049922,18.4349658697143,0,0,0.456741802216265,-360,360,0,0,0,0,2.67044988404537e-14,0
68,NPCC_S7:BRANCH_ROW:227,75,76,1,2500,15.4299201362943,15.4301319961589,0,0,-0.0561768560269869,-360,360,0,0,0,0,7.68782962578722e-13,0
69,NPCC_S7:BRANCH_ROW:234,38,39,1,1216,464.799103105308,464.352269375113,0,0,4.4097089983195,-360,360,0,0,0,0,1.56319401867222e-12,0
70,NPCC_S7:BRANCH_ROW:235,73,9002,0,2432,0,0,0,0,2.5169330337726,-360,360,0,0,0,0,0,0
71,NPCC_S7:BRANCH_ROW:236,9002,74,0,2432,0,0,0,0,2.27887067596875,-360,360,0,0,0,0,0,0
72,NPCC_S7:BRANCH_ROW:237,74,78,1,866.851485148515,181.644309593581,181.518367671429,0,0,1.3393780261792,-360,360,0,0,0,0,3.95234406968655e-13,0
73,NPCC_S7:BRANCH_ROW:238,77,78,1,650.138613861386,130.283187529377,130.221732852843,0,0,1.28158261021292,-360,360,0,0,0,0,2.66453525910038e-15,0
74,NPCC_S7:BRANCH_ROW:239,78,81,0,1158.78216075726,0,0,0,0,-0.578918124388675,-360,360,0,0,0,0,0,0
75,NPCC_S7:BRANCH_ROW:240,78,79,0,1390.53859290871,0,0,0,0,1.74059672911634,-360,360,0,0,0,0,0,0
76,NPCC_S7:BRANCH_ROW:241,78,82,1,1390.53859290871,499.226919887852,498.632528491825,0,0,2.4583616507105,-360,360,0,0,0,0,1.13908665908592e-13,0
77,NPCC_S7:BRANCH_ROW:242,78,9003,1,2865.3452685422,109.719719860409,109.793344180951,0,0,-1.07925325234759,-360,360,0,0,0,0,1.51771994888562e-14,0
78,NPCC_S7:BRANCH_ROW:243,9003,80,1,5000,242.409019508378,241.946379121434,0,0,2.38346007465214,-360,360,0,0,0,0,3.17764371615651e-14,0
79,NPCC_S7:BRANCH_ROW:244,81,80,1,2950,127.059014674482,127.35362303781,0,0,1.88312494669322,-360,360,0,0,0,0,3.92168741847038e-13,0
80,NPCC_S7:BRANCH_ROW:245,39,9001,1,5000,242.781863293364,242.185510908412,0,0,4.12308338284706,-360,360,0,0,0,0,1.54888767164789e-12,0
81,NPCC_S7:BRANCH_ROW:246,9001,73,0,5000,0,0,0,0,2.52363734776804,-360,360,0,0,0,0,0,0
82,PERFORM2019:AC:651:858:1,73,858,1,1216,414.029921605016,412.756648335217,0,0,1.07191880245778,-360,360,0,0,0,0,3.13465331981591e-12,0
83,PERFORM2019:AC:651:858:2,73,858,1,1216,414.029981775251,412.756599455176,0,0,1.07191880245778,-360,360,0,0,0,0,1.17185710042169e-13,0
84,PERFORM2019:AC:651:902:1,73,9002,1,1216,414.832640935342,412.124199771664,0,0,2.5169330337726,-360,360,0,0,0,0,1.61604350248916e-12,0
85,PERFORM2019:AC:651:902:2,73,9002,1,1216,414.832700642517,412.124166761758,0,0,2.5169330337726,-360,360,0,0,0,0,3.17827918135957e-12,0
86,PERFORM2019:AC:858:902:1,858,9002,1,1216,412.756672775546,411.29064381441,0,0,1.44501423131482,-360,360,0,0,0,0,3.1203102189372e-12,0
87,PERFORM2019:AC:858:902:2,858,9002,1,1216,412.756575015465,411.290710316641,0,0,1.44501423131482,-360,360,0,0,0,0,3.24207655372346e-12,0
88,PERFORM2019:AC:897:902:1,9002,74,1,1216,823.415223727942,822.311782919831,0,0,2.27887067596875,-360,360,0,0,0,0,1.58603898267627e-12,0
89,PERFORM2019:AC:897:902:2,9002,74,1,1216,823.414461728987,822.312801836065,0,0,2.27887067596875,-360,360,0,0,0,0,1.60475726869357e-12,0
90,PERFORM2019:AC:774:1519:1,76,774,1,1216,59.9770450282332,56.2096787755158,0,0,0.0722790887852796,-360,360,0,0,0,0,3.07081288907647e-12,0
91,PERFORM2019:AC:774:900:1,774,77,1,1725,56.2096787755251,51.894929189764,0,0,0.139373787886448,-360,360,0,0,0,0,1.77635683940025e-15,0
92,PERFORM2019:AC:900:1519:1,76,77,1,1725,59.5695840441001,51.4111973005474,0,0,0.211652876671728,-360,360,0,0,0,0,1.53858345497935e-12,0
93,NY2025:CEEC:351,43,9101,1,2000,282.065976668812,273.549365014088,0,0,3.50219992868559,-360,360,0,0,0,0,5.73137515186964e-14,0
94,NY2025:CEEC:352,43,9101,1,2000,282.065976668812,273.549365014088,0,0,3.50219992868559,-360,360,0,0,0,0,5.73137515186964e-14,0
95,NY2025:CEEC:361,9101,37,1,2000,414.238054546954,413.391432429887,0,0,2.03358157509694,-360,360,0,0,0,0,1.706135029904e-13,0
96,NY2025:CEEC:362,9101,37,1,2000,414.238054546954,413.391432429887,0,0,2.03358157509694,-360,360,0,0,0,0,1.706135029904e-13,0
97,NY2025:CEEC:14,43,9102,1,2000,245.01051950929,235.396446811753,0,0,3.23573482983863,-360,360,0,0,0,0,1.1403325463067e-13,0
98,NY2025:CEEC:371,9101,9102,1,2000,281.751781554155,282.156614130057,0,0,-0.266465098846967,-360,360,0,0,0,0,1.59483311423732e-12,0
99,NY2025:CEEC:LEGACY230:1,40,9103,1,1328.76341358641,54.7478689603734,44.069841692488,0,0,-0.500488841286817,-360,360,0,0,0,0,5.00226627775956e-14,0
100,NY2025:CEEC:LEGACY230:2,9103,44,1,1328.76341358641,90.8525528063962,98.0588152422546,0,0,-1.19377623677499,-360,360,0,0,0,0,1.13686837721616e-13,0
101,NY2025:CEEC:GORDON_XFMR,9102,9103,1,1200,55.6473109932251,55.3059067434531,0,0,-0.559975218305514,-360,360,0,0,0,0,1.06640605820044e-13,0
102,NY2025:NYES:1,9001,9104,1,1800,242.185510908413,241.550775576164,0,0,1.03038205965476,-360,360,0,0,0,0,3.09510490896743e-12,0
103,NY2025:NYES:2,9104,73,1,1800,241.550775576163,244.235284989892,0,0,1.49325528811327,-360,360,0,0,0,0,1.53375632449161e-12,0
104,NY2025:SMART_PATH:1,1220,48,0,575,0,0,0,0,-21.9096824351259,-360,360,0,0,0,0,0,0
105,NY2025:SMART_PATH:2,1220,48,0,575,0,0,0,0,-21.9096824351259,-360,360,0,0,0,0,0,0
106,NY2025:SMART_PATH:3,1220,44,0,453,0,0,0,0,11.4226551401278,-360,360,0,0,0,0,0,0
107,NY2025:SMART_PATH:4,1220,44,0,453,0,0,0,0,11.4226551401278,-360,360,0,0,0,0,0,0
108,NY2025:NYC:DELIVERY:95:1,78,1130,1,908.848753535103,218.753983322881,218.621368142161,0,0,0.822037253709187,-360,360,0,0,0,0,1.55761376684624e-12,0
109,NY2025:NYC:DELIVERY:95:2,1130,79,1,908.848753535103,244.102579805595,243.952978164221,0,0,0.91855947540715,-360,360,0,0,0,0,1.50819704684084e-12,0
110,NY2025:NYC:DELIVERY:240:1,78,557,1,1390.53859290871,335.526486170126,335.331990274853,0,0,0.825464032313274,-360,360,0,0,0,0,1.53825963888184e-12,0
111,NY2025:NYC:DELIVERY:240:2,557,79,1,1390.53859290871,371.528169988384,371.290607822586,0,0,0.915132696803063,-360,360,0,0,0,0,1.5355536354124e-12,0
112,NY2025:NYC:DELIVERY:97:1,78,1129,1,503.818330764024,40.5790306769682,40.5132076272432,0,0,-0.259273370837015,-360,360,0,0,0,0,3.82638973458036e-13,0
113,NY2025:NYC:DELIVERY:97:2,1129,81,1,503.818330764024,49.6640733635828,49.5682092771242,0,0,-0.31964475355166,-360,360,0,0,0,0,7.69299930949255e-13,0
114,NY2025:NYC:DELIVERY:239:1,78,1129,1,1158.78216075726,93.1795120122459,93.0283659757288,0,0,-0.259273370837015,-360,360,0,0,0,0,1.53589034891003e-12,0
115,NY2025:NYC:DELIVERY:239:2,1129,81,1,1158.78216075726,114.041021763133,113.820894060556,0,0,-0.31964475355166,-360,360,0,0,0,0,3.08493402856306e-12,0
116,NY2025:NYC:RAINEY_XFMR,1130,1529,1,1500,25.611499233493,25.6379046701182,0,0,-0.40511668135586,-360,360,0,0,0,0,3.88320147520101e-13,0
117,NY2025:NYC:ASTORIA_XFMR,557,1493,1,1500,36.5807827316851,36.6247989645543,0,0,-0.444475861186163,-360,360,0,0,0,0,7.1607233460989e-15,0
118,NY2025:NYC:CORONA_BASELINE,1493,601,1,2248,36.6247989645499,37.4701525581184,0,0,-0.0180756353094722,-360,360,0,0,0,0,7.32410687763558e-15,0
119,NY2025:RCC_QUEENS:CABLE,1529,601,1,300,25.6379046701199,25.4348670712419,0,0,-0.0540080365356879,-360,360,0,0,0,0,3.69055233897401e-15,0
120,NY2025:RCC_BROOKLYN:PAR,1129,9112,1,300,30.1709799392219,30.2392359448768,0,0,0.427546975456355,-360,360,0,0,0,0,7.94387096353761e-13,0
121,NY2025:RCC_BROOKLYN:CABLE,9112,9111,1,300,30.2392359449036,30.0164120234807,0,0,0.0108559779955186,-360,360,0,0,0,0,3.47433924637926e-11,0
122,NY2025:RCC_STATEN:PAR,81,9113,1,300,37.4119723868349,37.5518800926554,0,0,0.512864231666434,-360,360,0,0,0,0,1.99237247397974e-13,0
123,NY2025:RCC_STATEN:CABLE,9113,9114,1,300,37.5518800926554,35.2966499739551,0,0,0.119630921486952,-360,360,0,0,0,0,7.94410929039127e-15,0
124,NY2025:NYC:GREENWOOD_CORONA,9111,601,1,600,63.5147575198102,62.5072105885807,0,0,0.18378295320278,-360,360,0,0,0,0,3.07391865909579e-12,0
125,NY2025:NYC:FOX_GREENWOOD,9114,9111,1,600,35.2966499739565,33.8372949043872,0,0,0.125552553850149,-360,360,0,0,0,0,3.27867595952722e-12,0
126,NY2025_SPC:MH2,48,9120,1,433.826765771777,359.782438138332,358.998605042195,0,0,0.43576891517905,-360,360,0,0,0,0,1.39706796341172e-11,0
127,NY2025_SPC:MH3,48,9120,1,433.826765771777,359.782438138332,358.998605042195,0,0,0.43576891517905,-360,360,0,0,0,0,1.39706796341172e-11,0
128,NY2025_SPC:HA2,9121,1220,1,1300.88273978672,671.158405068095,656.489946387971,0,0,15.7671638470888,-360,360,0,0,0,0,2.8421709430404e-14,0
129,NY2025_SPC:HW2,9121,9123,1,1863.78193173853,51.402052468863,44.0003622185094,0,0,0.427607260288219,-360,360,0,0,0,0,3.5527136788005e-15,0
130,NY2025_SPC:LINE11,9122,43,1,1863.78193173853,655.542781179773,653.908329894979,0,0,7.78212169560568,-360,360,0,0,0,0,1.21417595910849e-13,0
131,NY2025_SPC:LINE13,1220,9122,1,1863.78193173853,656.489946387972,655.542781179774,0,0,2.15855006976395,-360,360,0,0,0,0,1.14571573537582e-13,0
132,NY2025_SPC:AT2,9120,9121,1,450,358.998605042214,357.596989464963,0,0,5.70674967285809,-360,360,0,0,0,0,7.55317288730925e-14,0
133,NY2025_SPC:AT3,9120,9121,1,450,358.998605042214,357.596989464963,0,0,5.70674967285809,-360,360,0,0,0,0,7.55317288730925e-14,0
134,NY2025_SPC:TR2,9123,9124,1,1350,44.0003622185109,43.9568950363312,0,0,0.227449300204128,-360,360,0,0,0,0,7.105427357601e-15,0
135,NY2025_SPC:PLATTS_REGIONAL_EQ,49,9124,1,2500,43.280700087948,43.9568950363298,0,0,-3.15891316157997,-360,360,0,0,0,0,7.32410687763558e-15,0
